
  Mrv2202 05192209503D          

 23 24  0  0  0  0            999 V2000
   -3.7919    4.7934   -0.5991 C   0  0  0  0  0  0  0  0  0  0  0  0
   -2.2942    4.7247   -0.3010 C   0  0  2  0  0  0  0  0  0  0  0  0
   -1.5870    4.6776   -1.5311 O   0  0  0  0  0  0  0  0  0  0  0  0
   -0.1252    4.6084   -1.3673 N   0  0  0  0  0  0  0  0  0  0  0  0
    0.6451    3.4783   -1.3314 C   0  0  0  0  0  0  0  0  0  0  0  0
    0.2040    2.3280   -1.2924 O   0  0  0  0  0  0  0  0  0  0  0  0
    2.0272    3.8060   -1.3407 C   0  0  0  0  0  0  0  0  0  0  0  0
    3.2013    3.0432   -1.3196 C   0  0  0  0  0  0  0  0  0  0  0  0
    4.4352    3.6922   -1.3134 C   0  0  0  0  0  0  0  0  0  0  0  0
    4.5022    5.0831   -1.3287 C   0  0  0  0  0  0  0  0  0  0  0  0
    3.3368    5.8465   -1.3493 C   0  0  0  0  0  0  0  0  0  0  0  0
    2.0941    5.2005   -1.3551 C   0  0  0  0  0  0  0  0  0  0  0  0
    0.7497    5.6597   -1.3540 C   0  0  0  0  0  0  0  0  0  0  0  0
    0.4212    6.8482   -1.3405 O   0  0  0  0  0  0  0  0  0  0  0  0
   -4.3800    4.8317    0.3414 H   0  0  0  0  0  0  0  0  0  0  0  0
   -4.0169    5.6996   -1.2018 H   0  0  0  0  0  0  0  0  0  0  0  0
   -4.1034    3.9009   -1.1824 H   0  0  0  0  0  0  0  0  0  0  0  0
   -2.0699    3.8109    0.2957 H   0  0  0  0  0  0  0  0  0  0  0  0
   -1.9825    5.6244    0.2762 H   0  0  0  0  0  0  0  0  0  0  0  0
    3.1435    1.9595   -1.3107 H   0  0  0  0  0  0  0  0  0  0  0  0
    5.3605    3.1185   -1.2993 H   0  0  0  0  0  0  0  0  0  0  0  0
    5.4783    5.5646   -1.3249 H   0  0  0  0  0  0  0  0  0  0  0  0
    3.3837    6.9312   -1.3629 H   0  0  0  0  0  0  0  0  0  0  0  0
  1  2  1  0  0  0  0
  1 15  1  0  0  0  0
  1 16  1  0  0  0  0
  1 17  1  0  0  0  0
  2  3  1  0  0  0  0
  2 18  1  0  0  0  0
  2 19  1  0  0  0  0
  3  4  1  0  0  0  0
  4 13  1  0  0  0  0
  4  5  1  0  0  0  0
  5  6  2  0  0  0  0
  5  7  1  0  0  0  0
  7 12  2  0  0  0  0
  7  8  1  0  0  0  0
  8  9  2  0  0  0  0
  8 20  1  0  0  0  0
  9 10  1  0  0  0  0
  9 21  1  0  0  0  0
 10 11  2  0  0  0  0
 10 22  1  0  0  0  0
 11 12  1  0  0  0  0
 11 23  1  0  0  0  0
 12 13  1  0  0  0  0
 13 14  2  0  0  0  0
M  END
$$$$
