
  Mrv2202 05192209443D          

 21 21  0  0  0  0            999 V2000
   -0.0220    1.4130    0.2500 C   0  0  0  0  0  0  0  0  0  0  0  0
    0.0110   -0.0460    0.0860 N   0  0  0  0  0  0  0  0  0  0  0  0
   -1.1530   -0.7530   -0.0180 C   0  0  0  0  0  0  0  0  0  0  0  0
   -2.2800   -0.0560    0.0360 N   0  0  0  0  0  0  0  0  0  0  0  0
   -3.5020   -0.8330   -0.0780 O   0  0  0  0  0  0  0  0  0  0  0  0
   -1.2210   -2.2290   -0.1860 C   0  0  1  0  0  0  0  0  0  0  0  0
    0.1370   -2.7990   -0.2210 C   0  0  0  0  0  0  0  0  0  0  0  0
    0.2090   -4.0160   -0.3560 O   0  0  0  0  0  0  0  0  0  0  0  0
    1.2470   -2.0220   -0.1090 N   0  0  0  0  0  0  0  0  0  0  0  0
    1.2190   -0.6710    0.0420 C   0  0  0  0  0  0  0  0  0  0  0  0
    2.2730   -0.0480    0.1350 O   0  0  0  0  0  0  0  0  0  0  0  0
    2.5770   -2.6260   -0.1490 C   0  0  0  0  0  0  0  0  0  0  0  0
    1.0000    1.8450    0.3200 H   0  0  0  0  0  0  0  0  0  0  0  0
   -0.5420    1.8460   -0.6330 H   0  0  0  0  0  0  0  0  0  0  0  0
   -0.5810    1.6410    1.1840 H   0  0  0  0  0  0  0  0  0  0  0  0
   -4.2690   -0.2440   -0.0280 H   0  0  0  0  0  0  0  0  0  0  0  0
   -1.7870   -2.6730    0.6610 H   0  0  0  0  0  0  0  0  0  0  0  0
   -1.7480   -2.4710   -1.1330 H   0  0  0  0  0  0  0  0  0  0  0  0
    2.5210   -3.7300   -0.2740 H   0  0  0  0  0  0  0  0  0  0  0  0
    3.1280   -2.1810   -1.0070 H   0  0  0  0  0  0  0  0  0  0  0  0
    3.0890   -2.3850    0.8090 H   0  0  0  0  0  0  0  0  0  0  0  0
  1  2  1  0  0  0  0
  1 13  1  0  0  0  0
  1 14  1  0  0  0  0
  1 15  1  0  0  0  0
  2 10  1  0  0  0  0
  2  3  1  0  0  0  0
  3  4  2  0  0  0  0
  3  6  1  0  0  0  0
  4  5  1  0  0  0  0
  5 16  1  0  0  0  0
  6  7  1  0  0  0  0
  6 17  1  0  0  0  0
  6 18  1  0  0  0  0
  7  8  2  0  0  0  0
  7  9  1  0  0  0  0
  9 10  1  0  0  0  0
  9 12  1  0  0  0  0
 10 11  2  0  0  0  0
 12 19  1  0  0  0  0
 12 20  1  0  0  0  0
 12 21  1  0  0  0  0
M  END
$$$$
