
  Mrv2202 05192209163D          

 28 27  0  0  0  0            999 V2000
    1.5320    2.2650   -1.6340 C   0  0  0  0  0  0  0  0  0  0  0  0
    1.2700    1.4220   -0.3610 C   0  0  1  0  0  0  0  0  0  0  0  0
    1.5480    2.2510    0.9190 C   0  0  0  0  0  0  0  0  0  0  0  0
   -0.1360    0.8650   -0.3550 C   0  0  0  0  0  0  0  0  0  0  0  0
   -0.3430   -0.3470   -0.3610 O   0  0  0  0  0  0  0  0  0  0  0  0
   -1.1510    1.7530   -0.3440 N   0  0  0  0  0  0  0  0  0  0  0  0
   -2.4390    1.2670   -0.3390 N   0  0  0  0  0  0  0  0  0  0  0  0
   -3.4540    2.1550   -0.3280 C   0  0  0  0  0  0  0  0  0  0  0  0
   -3.2470    3.3670   -0.3220 O   0  0  0  0  0  0  0  0  0  0  0  0
   -4.8600    1.5980   -0.3220 C   0  0  1  0  0  0  0  0  0  0  0  0
   -5.1380    0.7700   -1.6020 C   0  0  0  0  0  0  0  0  0  0  0  0
   -5.1220    0.7550    0.9510 C   0  0  0  0  0  0  0  0  0  0  0  0
    0.8830    3.1650   -1.6650 H   0  0  0  0  0  0  0  0  0  0  0  0
    2.5900    2.6060   -1.6490 H   0  0  0  0  0  0  0  0  0  0  0  0
    1.3520    1.6640   -2.5520 H   0  0  0  0  0  0  0  0  0  0  0  0
    1.9560    0.5460   -0.3690 H   0  0  0  0  0  0  0  0  0  0  0  0
    2.6050    2.5910    0.9250 H   0  0  0  0  0  0  0  0  0  0  0  0
    0.8990    3.1500    0.9670 H   0  0  0  0  0  0  0  0  0  0  0  0
    1.3780    1.6400    1.8320 H   0  0  0  0  0  0  0  0  0  0  0  0
   -0.9510    2.7320   -0.3400 H   0  0  0  0  0  0  0  0  0  0  0  0
   -2.6390    0.2880   -0.3430 H   0  0  0  0  0  0  0  0  0  0  0  0
   -5.5460    2.4740   -0.3130 H   0  0  0  0  0  0  0  0  0  0  0  0
   -4.4890   -0.1290   -1.6510 H   0  0  0  0  0  0  0  0  0  0  0  0
   -6.1960    0.4290   -1.6080 H   0  0  0  0  0  0  0  0  0  0  0  0
   -4.9690    1.3820   -2.5150 H   0  0  0  0  0  0  0  0  0  0  0  0
   -4.9420    1.3550    1.8690 H   0  0  0  0  0  0  0  0  0  0  0  0
   -6.1800    0.4140    0.9660 H   0  0  0  0  0  0  0  0  0  0  0  0
   -4.4730   -0.1450    0.9810 H   0  0  0  0  0  0  0  0  0  0  0  0
  1  2  1  0  0  0  0
  1 13  1  0  0  0  0
  1 14  1  0  0  0  0
  1 15  1  0  0  0  0
  2  3  1  0  0  0  0
  2  4  1  0  0  0  0
  2 16  1  0  0  0  0
  3 17  1  0  0  0  0
  3 18  1  0  0  0  0
  3 19  1  0  0  0  0
  4  5  2  0  0  0  0
  4  6  1  0  0  0  0
  6  7  1  0  0  0  0
  6 20  1  0  0  0  0
  7  8  1  0  0  0  0
  7 21  1  0  0  0  0
  8  9  2  0  0  0  0
  8 10  1  0  0  0  0
 10 11  1  0  0  0  0
 10 12  1  0  0  0  0
 10 22  1  0  0  0  0
 11 23  1  0  0  0  0
 11 24  1  0  0  0  0
 11 25  1  0  0  0  0
 12 26  1  0  0  0  0
 12 27  1  0  0  0  0
 12 28  1  0  0  0  0
M  END
$$$$
