
  Mrv2202 05192209323D          

 22 23  0  0  0  0            999 V2000
    0.2624    1.3589    0.2237 C   0  0  0  0  0  0  0  0  0  0  0  0
    1.4790    2.0533    0.2128 C   0  0  0  0  0  0  0  0  0  0  0  0
    2.6845    1.3539    0.3084 C   0  0  0  0  0  0  0  0  0  0  0  0
    2.6999   -0.0644    0.3722 C   0  0  0  0  0  0  0  0  0  0  0  0
    1.4612   -0.7430    0.3804 C   0  0  0  0  0  0  0  0  0  0  0  0
    0.2564   -0.0371    0.3120 C   0  0  0  0  0  0  0  0  0  0  0  0
   -1.2535   -0.8977    0.3197 Cl  0  0  0  0  0  0  0  0  0  0  0  0
    4.0088   -0.7563    0.3614 C   0  0  0  0  0  0  0  0  0  0  0  0
    5.1366   -0.0252    0.5906 C   0  0  0  0  0  0  0  0  0  0  0  0
    4.9700    1.4441    0.9675 C   0  0  1  0  0  0  0  0  0  0  0  0
    3.8680    2.0485    0.2846 O   0  0  0  0  0  0  0  0  0  0  0  0
    6.5365   -0.4814    0.6502 C   0  0  0  0  0  0  0  0  0  0  0  0
    6.9839   -1.3717   -0.1533 N   0  0  0  0  0  0  0  0  0  0  0  0
    8.3833   -1.6171    0.0865 O   0  0  0  0  0  0  0  0  0  0  0  0
    3.9657   -2.4781    0.0413 Cl  0  0  0  0  0  0  0  0  0  0  0  0
   -0.6743    1.8918    0.1609 H   0  0  0  0  0  0  0  0  0  0  0  0
    1.4926    3.1317    0.1452 H   0  0  0  0  0  0  0  0  0  0  0  0
    1.4286   -1.8212    0.4272 H   0  0  0  0  0  0  0  0  0  0  0  0
    4.7956    1.5095    2.0667 H   0  0  0  0  0  0  0  0  0  0  0  0
    5.8895    2.0427    0.7718 H   0  0  0  0  0  0  0  0  0  0  0  0
    7.2108    0.0361    1.3481 H   0  0  0  0  0  0  0  0  0  0  0  0
    8.6820   -2.3122   -0.5116 H   0  0  0  0  0  0  0  0  0  0  0  0
  1  6  2  0  0  0  0
  1  2  1  0  0  0  0
  1 16  1  0  0  0  0
  2  3  2  0  0  0  0
  2 17  1  0  0  0  0
  3 11  1  0  0  0  0
  3  4  1  0  0  0  0
  4  5  2  0  0  0  0
  4  8  1  0  0  0  0
  5  6  1  0  0  0  0
  5 18  1  0  0  0  0
  6  7  1  0  0  0  0
  8  9  2  0  0  0  0
  8 15  1  0  0  0  0
  9 10  1  0  0  0  0
  9 12  1  0  0  0  0
 10 11  1  0  0  0  0
 10 19  1  0  0  0  0
 10 20  1  0  0  0  0
 12 13  2  0  0  0  0
 12 21  1  0  0  0  0
 13 14  1  0  0  0  0
 14 22  1  0  0  0  0
M  END
$$$$
