
  Mrv2202 05192210003D          

 28 30  0  0  0  0            999 V2000
    2.6612   -0.4972   -1.5988 C   0  0  0  0  0  0  0  0  0  0  0  0
    3.0884    0.4744   -0.6894 C   0  0  0  0  0  0  0  0  0  0  0  0
    2.2852    0.8064    0.4068 C   0  0  0  0  0  0  0  0  0  0  0  0
    1.0492    0.1789    0.6000 C   0  0  0  0  0  0  0  0  0  0  0  0
    0.5989   -0.8052   -0.3190 C   0  0  0  0  0  0  0  0  0  0  0  0
    1.4283   -1.1325   -1.4153 C   0  0  0  0  0  0  0  0  0  0  0  0
   -0.7295   -1.4871   -0.1795 C   0  0  0  0  0  0  0  0  0  0  0  0
   -2.1224   -0.8096   -0.1246 C   0  0  0  0  0  0  0  0  0  0  0  0
   -2.2981    0.5061   -0.2163 N   0  0  0  0  0  0  0  0  0  0  0  0
   -3.5991    1.0767   -0.1450 C   0  0  0  0  0  0  0  0  0  0  0  0
   -4.4487    1.0705   -1.2597 C   0  0  0  0  0  0  0  0  0  0  0  0
   -5.7146    1.6629   -1.1792 C   0  0  0  0  0  0  0  0  0  0  0  0
   -6.1279    2.2757    0.0104 C   0  0  0  0  0  0  0  0  0  0  0  0
   -5.2717    2.2980    1.1184 C   0  0  0  0  0  0  0  0  0  0  0  0
   -4.0061    1.7044    1.0390 C   0  0  0  0  0  0  0  0  0  0  0  0
   -5.7780    3.0642    2.5939 Cl  0  0  0  0  0  0  0  0  0  0  0  0
   -6.7703    1.6389   -2.5594 Cl  0  0  0  0  0  0  0  0  0  0  0  0
   -3.4118   -1.9658    0.0686 S   0  0  0  0  0  0  0  0  0  0  0  0
   -2.2309   -3.5474    0.0752 S   0  0  0  0  0  0  0  0  0  0  0  0
   -0.7129   -2.8232   -0.0940 N   0  0  0  0  0  0  0  0  0  0  0  0
    0.1517    0.6183    2.0320 Cl  0  0  0  0  0  0  0  0  0  0  0  0
    3.2843   -0.7585   -2.4437 H   0  0  0  0  0  0  0  0  0  0  0  0
    4.0429    0.9637   -0.8288 H   0  0  0  0  0  0  0  0  0  0  0  0
    2.6199    1.5477    1.1186 H   0  0  0  0  0  0  0  0  0  0  0  0
    1.1108   -1.8835   -2.1257 H   0  0  0  0  0  0  0  0  0  0  0  0
   -4.1350    0.5999   -2.1789 H   0  0  0  0  0  0  0  0  0  0  0  0
   -7.1032    2.7333    0.0714 H   0  0  0  0  0  0  0  0  0  0  0  0
   -3.3489    1.7251    1.8949 H   0  0  0  0  0  0  0  0  0  0  0  0
  1  6  2  0  0  0  0
  1  2  1  0  0  0  0
  1 22  1  0  0  0  0
  2  3  2  0  0  0  0
  2 23  1  0  0  0  0
  3  4  1  0  0  0  0
  3 24  1  0  0  0  0
  4  5  2  0  0  0  0
  4 21  1  0  0  0  0
  5  6  1  0  0  0  0
  5  7  1  0  0  0  0
  6 25  1  0  0  0  0
  7 20  2  0  0  0  0
  7  8  1  0  0  0  0
  8  9  2  0  0  0  0
  8 18  1  0  0  0  0
  9 10  1  0  0  0  0
 10 15  2  0  0  0  0
 10 11  1  0  0  0  0
 11 12  2  0  0  0  0
 11 26  1  0  0  0  0
 12 13  1  0  0  0  0
 12 17  1  0  0  0  0
 13 14  2  0  0  0  0
 13 27  1  0  0  0  0
 14 15  1  0  0  0  0
 14 16  1  0  0  0  0
 15 28  1  0  0  0  0
 18 19  1  0  0  0  0
 19 20  1  0  0  0  0
M  END
$$$$
