
  Mrv2202 05192209353D          

 37 39  0  0  0  0            999 V2000
  -12.0382   -2.6763    2.1723 C   0  0  0  0  0  0  0  0  0  0  0  0
  -10.8115   -1.9504    2.1491 O   0  0  0  0  0  0  0  0  0  0  0  0
   -9.6168   -2.6924    2.0117 C   0  0  0  0  0  0  0  0  0  0  0  0
   -9.5863   -4.1020    1.9395 C   0  0  0  0  0  0  0  0  0  0  0  0
   -8.3603   -4.7759    1.8080 C   0  0  0  0  0  0  0  0  0  0  0  0
   -7.1549   -4.0611    1.7351 C   0  0  0  0  0  0  0  0  0  0  0  0
   -7.1868   -2.6585    1.8222 C   0  0  0  0  0  0  0  0  0  0  0  0
   -8.4094   -1.9854    1.9542 C   0  0  0  0  0  0  0  0  0  0  0  0
   -5.9094   -4.8141    1.6291 C   0  0  0  0  0  0  0  0  0  0  0  0
   -4.8185   -4.3059    0.8040 C   0  0  0  0  0  0  0  0  0  0  0  0
   -4.9424   -3.6236   -0.4855 C   0  0  0  0  0  0  0  0  0  0  0  0
   -5.9759   -3.3209   -1.0967 O   0  0  0  0  0  0  0  0  0  0  0  0
   -3.7259   -3.2850   -1.0747 N   0  0  0  0  0  0  0  0  0  0  0  0
   -2.5071   -3.5821   -0.5005 N   0  0  0  0  0  0  0  0  0  0  0  0
   -2.4831   -4.2577    0.7266 C   0  0  0  0  0  0  0  0  0  0  0  0
   -3.5840   -4.6361    1.3703 N   0  0  0  0  0  0  0  0  0  0  0  0
   -1.1221   -4.6100    1.3077 C   0  0  0  0  0  0  0  0  0  0  0  0
   -0.0270   -3.7118    1.2196 C   0  0  0  0  0  0  0  0  0  0  0  0
    1.2285   -4.0499    1.7441 C   0  0  0  0  0  0  0  0  0  0  0  0
    1.4164   -5.2879    2.3670 C   0  0  0  0  0  0  0  0  0  0  0  0
    0.3516   -6.1892    2.4751 C   0  0  0  0  0  0  0  0  0  0  0  0
   -0.9047   -5.8522    1.9523 C   0  0  0  0  0  0  0  0  0  0  0  0
  -12.8783   -1.9548    2.2659 H   0  0  0  0  0  0  0  0  0  0  0  0
  -12.1794   -3.2497    1.2302 H   0  0  0  0  0  0  0  0  0  0  0  0
  -12.0748   -3.3638    3.0466 H   0  0  0  0  0  0  0  0  0  0  0  0
  -10.4839   -4.6949    1.9851 H   0  0  0  0  0  0  0  0  0  0  0  0
   -8.3518   -5.8550    1.7528 H   0  0  0  0  0  0  0  0  0  0  0  0
   -6.2666   -2.0943    1.7872 H   0  0  0  0  0  0  0  0  0  0  0  0
   -8.4315   -0.9078    2.0153 H   0  0  0  0  0  0  0  0  0  0  0  0
   -5.7198   -5.6544    2.3113 H   0  0  0  0  0  0  0  0  0  0  0  0
   -3.8793   -2.8213   -1.9598 H   0  0  0  0  0  0  0  0  0  0  0  0
   -1.6153   -3.3711   -0.9209 H   0  0  0  0  0  0  0  0  0  0  0  0
   -0.1482   -2.7398    0.7623 H   0  0  0  0  0  0  0  0  0  0  0  0
    2.0516   -3.3528    1.6742 H   0  0  0  0  0  0  0  0  0  0  0  0
    2.3837   -5.5475    2.7741 H   0  0  0  0  0  0  0  0  0  0  0  0
    0.4941   -7.1429    2.9638 H   0  0  0  0  0  0  0  0  0  0  0  0
   -1.7214   -6.5569    2.0470 H   0  0  0  0  0  0  0  0  0  0  0  0
  1  2  1  0  0  0  0
  1 23  1  0  0  0  0
  1 24  1  0  0  0  0
  1 25  1  0  0  0  0
  2  3  1  0  0  0  0
  3  8  1  0  0  0  0
  3  4  2  0  0  0  0
  4  5  1  0  0  0  0
  4 26  1  0  0  0  0
  5  6  2  0  0  0  0
  5 27  1  0  0  0  0
  6  7  1  0  0  0  0
  6  9  1  0  0  0  0
  7  8  2  0  0  0  0
  7 28  1  0  0  0  0
  8 29  1  0  0  0  0
  9 10  2  0  0  0  0
  9 30  1  0  0  0  0
 10 16  1  0  0  0  0
 10 11  1  0  0  0  0
 11 12  2  0  0  0  0
 11 13  1  0  0  0  0
 13 14  1  0  0  0  0
 13 31  1  0  0  0  0
 14 15  1  0  0  0  0
 14 32  1  0  0  0  0
 15 16  2  0  0  0  0
 15 17  1  0  0  0  0
 17 22  1  0  0  0  0
 17 18  2  0  0  0  0
 18 19  1  0  0  0  0
 18 33  1  0  0  0  0
 19 20  2  0  0  0  0
 19 34  1  0  0  0  0
 20 21  1  0  0  0  0
 20 35  1  0  0  0  0
 21 22  2  0  0  0  0
 21 36  1  0  0  0  0
 22 37  1  0  0  0  0
M  END
$$$$
