
  Mrv2202 05192209533D          

 26 28  0  0  0  0            999 V2000
   -3.5132   -0.2112    0.4474 C   0  0  0  0  0  0  0  0  0  0  0  0
   -2.0197   -0.1210    0.4029 C   0  0  0  0  0  0  0  0  0  0  0  0
   -1.0787   -1.1064    0.3968 C   0  0  0  0  0  0  0  0  0  0  0  0
    0.2179   -0.5997    0.3497 N   0  0  0  0  0  0  0  0  0  0  0  0
    1.3920   -1.3648    0.3321 C   0  0  0  0  0  0  0  0  0  0  0  0
    1.3135   -2.6014    0.3603 O   0  0  0  0  0  0  0  0  0  0  0  0
    2.6415   -0.6170    0.2807 C   0  0  0  0  0  0  0  0  0  0  0  0
    3.8723   -1.2910    0.2607 C   0  0  0  0  0  0  0  0  0  0  0  0
    5.0727   -0.5816    0.2119 C   0  0  0  0  0  0  0  0  0  0  0  0
    5.0586    0.8116    0.1824 C   0  0  0  0  0  0  0  0  0  0  0  0
    3.8433    1.4987    0.2026 C   0  0  0  0  0  0  0  0  0  0  0  0
    2.6277    0.7987    0.2515 C   0  0  0  0  0  0  0  0  0  0  0  0
    1.3641    1.5206    0.2729 C   0  0  0  0  0  0  0  0  0  0  0  0
    1.2448    2.7509    0.2505 O   0  0  0  0  0  0  0  0  0  0  0  0
    0.2120    0.7459    0.3215 N   0  0  0  0  0  0  0  0  0  0  0  0
   -1.1919    1.1518    0.3528 C   0  0  2  0  0  0  0  0  0  0  0  0
   -3.8435   -1.2726    0.4780 H   0  0  0  0  0  0  0  0  0  0  0  0
   -3.8984    0.3082    1.3505 H   0  0  0  0  0  0  0  0  0  0  0  0
   -3.9498    0.2705   -0.4544 H   0  0  0  0  0  0  0  0  0  0  0  0
   -1.1907   -2.1852    0.4219 H   0  0  0  0  0  0  0  0  0  0  0  0
    3.9019   -2.3733    0.2820 H   0  0  0  0  0  0  0  0  0  0  0  0
    6.0147   -1.1137    0.1964 H   0  0  0  0  0  0  0  0  0  0  0  0
    5.9892    1.3626    0.1451 H   0  0  0  0  0  0  0  0  0  0  0  0
    3.8500    2.5810    0.1803 H   0  0  0  0  0  0  0  0  0  0  0  0
   -1.3479    1.8009    1.2284 H   0  0  0  0  0  0  0  0  0  0  0  0
   -1.3979    1.7635   -0.5396 H   0  0  0  0  0  0  0  0  0  0  0  0
  1  2  1  0  0  0  0
  1 17  1  0  0  0  0
  1 18  1  0  0  0  0
  1 19  1  0  0  0  0
  2 16  1  0  0  0  0
  2  3  2  0  0  0  0
  3  4  1  0  0  0  0
  3 20  1  0  0  0  0
  4 15  1  0  0  0  0
  4  5  1  0  0  0  0
  5  6  2  0  0  0  0
  5  7  1  0  0  0  0
  7 12  2  0  0  0  0
  7  8  1  0  0  0  0
  8  9  2  0  0  0  0
  8 21  1  0  0  0  0
  9 10  1  0  0  0  0
  9 22  1  0  0  0  0
 10 11  2  0  0  0  0
 10 23  1  0  0  0  0
 11 12  1  0  0  0  0
 11 24  1  0  0  0  0
 12 13  1  0  0  0  0
 13 14  2  0  0  0  0
 13 15  1  0  0  0  0
 15 16  1  0  0  0  0
 16 25  1  0  0  0  0
 16 26  1  0  0  0  0
M  END
$$$$
